
#======================================================================
# CRYSTAL DATA
#----------------------------------------------------------------------
data_VESTA_phase_1

_chemical_name_common                  'C3 H3 N3 O2'
_cell_length_a                         9.8831(7)
_cell_length_b                         9.6688(7)
_cell_length_c                         8.3417(4)
_cell_angle_alpha                      81.139(4)
_cell_angle_beta                       100.076(4)
_cell_angle_gamma                      105.966(6)
_cell_volume                           749.807171
_space_group_name_H-M_alt              'P -1'
_space_group_IT_number                 2

loop_
_space_group_symop_operation_xyz
   'x, y, z'
   '-x, -y, -z'

loop_
   _atom_site_label
   _atom_site_occupancy
   _atom_site_fract_x
   _atom_site_fract_y
   _atom_site_fract_z
   _atom_site_adp_type
   _atom_site_U_iso_or_equiv
   _atom_site_type_symbol
   N1         1.0     0.0375(4)    0.3279(4)   -0.0574(4)   Uiso  ? N
   N2         1.0     0.1002(4)    0.4612(4)   -0.1237(4)   Uiso  ? N
   C1         1.0     0.0139(4)    0.5006(4)   -0.2498(4)   Uiso  ? C
   C2         1.0    -0.1074(4)    0.3895(4)   -0.2653(4)   Uiso  ? C
   C3         1.0    -0.0887(4)    0.2832(4)   -0.1425(4)   Uiso  ? C
   N3         1.0    -0.2303(4)    0.3848(4)   -0.3837(4)   Uiso  ? N
   O1         1.0    -0.3288(4)    0.2741(4)   -0.3770(4)   Uiso  ? O
   O2         1.0    -0.2322(4)    0.4897(5)   -0.4850(4)   Uiso  ? O
   H1         1.0     0.072(8)     0.272(9)     0.046(12)   Uiso  ? H
   H2         1.0     0.035(4)     0.580(5)    -0.310(5)    Uiso  ? H
   H3         1.0    -0.143(5)     0.196(5)    -0.118(5)    Uiso  ? H
   N4         1.0     0.3096(4)    0.2559(4)    0.2909(4)   Uiso  ? N
   N5         1.0     0.1740(4)    0.1941(4)    0.2316(4)   Uiso  ? N
   C4         1.0     0.1318(4)    0.0688(4)    0.3199(4)   Uiso  ? C
   C5         1.0     0.2420(4)    0.0490(4)    0.4374(4)   Uiso  ? C
   C6         1.0     0.3532(4)    0.1702(4)    0.4151(4)   Uiso  ? C
   N6         1.0     0.2441(4)   -0.0686(4)    0.5593(4)   Uiso  ? N
   O3         1.0     0.3543(4)   -0.0673(4)    0.6540(4)   Uiso  ? O
   O4         1.0     0.1340(4)   -0.1671(4)    0.5638(4)   Uiso  ? O
   H4         1.0     0.368(10)    0.342(11)    0.270(10)   Uiso  ? H
   H5         1.0     0.042(5)     0.015(5)     0.296(5)    Uiso  ? H
   H6         1.0     0.438(4)     0.197(4)     0.465(4)    Uiso  ? H
   N7         1.0     0.3742(4)    0.6109(4)    0.0312(4)   Uiso  ? N
   N8         1.0     0.4432(4)    0.5436(4)    0.1582(4)   Uiso  ? N
   C7         1.0     0.5695(4)    0.6305(4)    0.2011(4)   Uiso  ? C
   C8         1.0     0.5803(4)    0.7566(4)    0.0968(4)   Uiso  ? C
   C9         1.0     0.4547(4)    0.7403(4)   -0.0085(4)   Uiso  ? C
   N9         1.0     0.6989(4)    0.8796(4)    0.0952(4)   Uiso  ? N
   O5         1.0     0.6886(4)    0.9823(4)   -0.0079(5)   Uiso  ? O
   O6         1.0     0.8028(4)    0.8753(4)    0.1975(5)   Uiso  ? O
   H7         1.0     0.288(11)    0.574(9)    -0.032(10)   Uiso  ? H
   H8         1.0     0.635(4)     0.603(4)     0.290(5)    Uiso  ? H
   H9         1.0     0.427(4)     0.804(4)    -0.099(5)    Uiso  ? H
