
#======================================================================
# CRYSTAL DATA
#----------------------------------------------------------------------
data_VESTA_phase_1

_chemical_name_common                  'C3 H3 N3 O2'
_cell_length_a                         9.8831(7)
_cell_length_b                         9.6688(7)
_cell_length_c                         8.3417(4)
_cell_angle_alpha                      81.139(4)
_cell_angle_beta                       100.076(4)
_cell_angle_gamma                      105.966(6)
_cell_volume                           749.807171
_space_group_name_H-M_alt              'P -1'
_space_group_IT_number                 2

loop_
_space_group_symop_operation_xyz
   'x, y, z'
   '-x, -y, -z'

loop_
   _atom_site_label
   _atom_site_occupancy
   _atom_site_fract_x
   _atom_site_fract_y
   _atom_site_fract_z
   _atom_site_adp_type
   _atom_site_U_iso_or_equiv
   _atom_site_type_symbol
   N1         1.0     0.0375(4)    0.3279(4)   -0.0574(4)   Uiso  ? N
   N2         1.0     0.1002(4)    0.4612(4)   -0.1237(4)   Uiso  ? N
   C1         1.0     0.0139(4)    0.5006(4)   -0.2498(4)   Uiso  ? C
   C2         1.0    -0.1074(4)    0.3895(4)   -0.2653(4)   Uiso  ? C
   C3         1.0    -0.0887(4)    0.2832(4)   -0.1425(4)   Uiso  ? C
   N3         1.0    -0.2303(4)    0.3848(4)   -0.3837(4)   Uiso  ? N
   O1         1.0    -0.3288(4)    0.2741(4)   -0.3770(4)   Uiso  ? O
   O2         1.0    -0.2322(4)    0.4897(5)   -0.4850(4)   Uiso  ? O
   H2         1.0     0.035(4)     0.580(5)    -0.310(5)    Uiso  ? H
   H3         1.0    -0.143(5)     0.196(5)    -0.118(5)    Uiso  ? H
   N4         1.0     0.3096(4)    0.2559(4)    0.2909(4)   Uiso  ? N
   N5         1.0     0.1740(4)    0.1941(4)    0.2316(4)   Uiso  ? N
   C4         1.0     0.1318(4)    0.0688(4)    0.3199(4)   Uiso  ? C
   C5         1.0     0.2420(4)    0.0490(4)    0.4374(4)   Uiso  ? C
   C6         1.0     0.3532(4)    0.1702(4)    0.4151(4)   Uiso  ? C
   N6         1.0     0.2441(4)   -0.0686(4)    0.5593(4)   Uiso  ? N
   O3         1.0     0.3543(4)   -0.0673(4)    0.6540(4)   Uiso  ? O
   O4         1.0     0.1340(4)   -0.1671(4)    0.5638(4)   Uiso  ? O
   H5         1.0     0.042(5)     0.015(5)     0.296(5)    Uiso  ? H
   H6         1.0     0.438(4)     0.197(4)     0.465(4)    Uiso  ? H
   N7         1.0     0.3742(4)    0.6109(4)    0.0312(4)   Uiso  ? N
   N8         1.0     0.4432(4)    0.5436(4)    0.1582(4)   Uiso  ? N
   C7         1.0     0.5695(4)    0.6305(4)    0.2011(4)   Uiso  ? C
   C8         1.0     0.5803(4)    0.7566(4)    0.0968(4)   Uiso  ? C
   C9         1.0     0.4547(4)    0.7403(4)   -0.0085(4)   Uiso  ? C
   N9         1.0     0.6989(4)    0.8796(4)    0.0952(4)   Uiso  ? N
   O5         1.0     0.6886(4)    0.9823(4)   -0.0079(5)   Uiso  ? O
   O6         1.0     0.8028(4)    0.8753(4)    0.1975(5)   Uiso  ? O
   H8         1.0     0.635(4)     0.603(4)     0.290(5)    Uiso  ? H
   H9         1.0     0.427(4)     0.804(4)    -0.099(5)    Uiso  ? H
   H10?       1.0     0.186(10)    0.511(9)    -0.074(9)    Uiso  ? H
   H11?       1.0     0.142(7)     0.234(8)     0.164(11)   Uiso  ? H
   H12?       1.0     0.421(7)     0.471(10)    0.199(9)    Uiso  ? H

#======================================================================
# CRYSTAL DATA
#----------------------------------------------------------------------
data_VESTA_phase_2

_chemical_name_common                  'C3 H3 N3 O2'
_cell_length_a                         8.0288(16)
_cell_length_b                         9.621(2)
_cell_length_c                         9.906(2)
_cell_angle_alpha                      74.395(3)
_cell_angle_beta                       81.549(3)
_cell_angle_gamma                      83.255(3)
_cell_volume                           726.554842
_space_group_name_H-M_alt              'P -1'
_space_group_IT_number                 2

loop_
_space_group_symop_operation_xyz
   'x, y, z'
   '-x, -y, -z'

loop_
   _atom_site_label
   _atom_site_occupancy
   _atom_site_fract_x
   _atom_site_fract_y
   _atom_site_fract_z
   _atom_site_adp_type
   _atom_site_U_iso_or_equiv
   _atom_site_type_symbol
   N1         1.0    -0.2101(4)    0.2540(4)    0.1923(4)   Uiso  ? N
   H1         1.0    -0.248100     0.336100     0.142300    Uiso  ? H
   N2         1.0    -0.2703(4)    0.1939(4)    0.3291(4)   Uiso  ? N
   C1         1.0    -0.1798(4)    0.0681(4)    0.3708(4)   Uiso  ? C
   H2         1.0    -0.192900     0.004100     0.459900    Uiso  ? H
   C2         1.0    -0.0624(4)    0.0494(4)    0.2579(4)   Uiso  ? C
   C3         1.0    -0.0852(4)    0.1688(4)    0.1466(4)   Uiso  ? C
   H3         1.0    -0.024700     0.186200     0.057000    Uiso  ? H
   N3         1.0     0.0614(4)   -0.0683(4)    0.2554(4)   Uiso  ? N
   O1         1.0     0.1556(4)   -0.0672(4)    0.1453(4)   Uiso  ? O
   O2         1.0     0.0682(4)   -0.1676(4)    0.3651(4)   Uiso  ? O
   N4         1.0     0.4686(4)    0.3914(4)   -0.1298(4)   Uiso  ? N
   H4         1.0     0.516600     0.427800    -0.213400    Uiso  ? H
   N5         1.0     0.3394(4)    0.4606(4)   -0.0596(4)   Uiso  ? N
   C4         1.0     0.3011(4)    0.3708(4)    0.0658(4)   Uiso  ? C
   H5         1.0     0.218300     0.389800     0.136200    Uiso  ? H
   C5         1.0     0.4050(4)    0.2440(4)    0.0744(4)   Uiso  ? C
   C6         1.0     0.5092(4)    0.2603(4)   -0.0507(4)   Uiso  ? C
   H6         1.0     0.592400     0.192600    -0.075200    Uiso  ? H
   N6         1.0     0.4089(4)    0.1199(4)    0.1931(4)   Uiso  ? N
   O3         1.0     0.5134(4)    0.0173(4)    0.1813(4)   Uiso  ? O
   O4         1.0     0.3090(4)    0.1223(4)    0.2996(2)   Uiso  ? O
   N7         1.0     0.4414(4)    0.3244(4)    0.4649(4)   Uiso  ? N
   H7         1.0     0.525400     0.276800     0.428500    Uiso  ? H
   N8         1.0     0.3765(4)    0.4587(4)    0.4002(4)   Uiso  ? N
   C7         1.0     0.2485(4)    0.4977(4)    0.4873(4)   Uiso  ? C
   H8         1.0     0.181000     0.584500     0.469900    Uiso  ? H
   C8         1.0     0.2336(4)    0.3850(4)    0.6093(4)   Uiso  ? C
   C9         1.0     0.3574(4)    0.2769(4)    0.5918(4)   Uiso  ? C
   H9         1.0     0.377900     0.188400     0.656200    Uiso  ? H
   N9         1.0     0.1156(4)    0.3816(4)    0.7325(4)   Uiso  ? N
   O5         1.0     0.1206(4)    0.2707(4)    0.8315(2)   Uiso  ? O
   O6         1.0     0.0138(4)    0.4887(4)    0.7342(4)   Uiso  ? O
